VERS 150205 30 25034
MODE SEQ
NAME 
PFIL 0 0 0
LANG 0
UNIT MM X W X CM MR CPMM
ENPD 1.0E+1
ENVD 2.0E+1 1 0
GFAC 0 0
GCAT SCHOTT INFRARED OHARA
RAIM 0 0 1 1 0 0 0 0 0
PUSH 0 0 0 0 0 0
SDMA 0 1 0
FTYP 0 0 1 3 0 0 0
ROPD 2
PICB 1
XFLN 0 0 0 0 0 0 0 0 0 0 0 0
YFLN 0 0 0 0 0 0 0 0 0 0 0 0
FWGN 1 1 1 1 1 1 1 1 1 1 1 1
VDXN 0 0 0 0 0 0 0 0 0 0 0 0
VDYN 0 0 0 0 0 0 0 0 0 0 0 0
VCXN 0 0 0 0 0 0 0 0 0 0 0 0
VCYN 0 0 0 0 0 0 0 0 0 0 0 0
VANN 0 0 0 0 0 0 0 0 0 0 0 0
WAVM 1 7.93E-1 1
WAVM 2 8.0E-1 1
WAVM 3 8.07E-1 1
WAVM 4 5.5E-1 1
WAVM 5 5.5E-1 1
WAVM 6 5.5E-1 1
WAVM 7 5.5E-1 1
WAVM 8 5.5E-1 1
WAVM 9 5.5E-1 1
WAVM 10 5.5E-1 1
WAVM 11 5.5E-1 1
WAVM 12 5.5E-1 1
WAVM 13 5.5E-1 1
WAVM 14 5.5E-1 1
WAVM 15 5.5E-1 1
WAVM 16 5.5E-1 1
WAVM 17 5.5E-1 1
WAVM 18 5.5E-1 1
WAVM 19 5.5E-1 1
WAVM 20 5.5E-1 1
WAVM 21 5.5E-1 1
WAVM 22 5.5E-1 1
WAVM 23 5.5E-1 1
WAVM 24 5.5E-1 1
PWAV 1
POLS 1 0 1 0 0 1 0
GLRS 2 0
GSTD 0 100.000 100.000 100.000 100.000 100.000 100.000 0 1 1 0 0 1 1 1 1 1 1
NSCD 100 500 0 1.0E-3 5 1.0E-6 0 0 0 0 0 0 1000000 0 2
COFN QF "COATING.DAT" "SCATTER_PROFILE.DAT" "ABG_DATA.DAT" "PROFILE.GRD"
COFN COATING.DAT SCATTER_PROFILE.DAT ABG_DATA.DAT PROFILE.GRD
SURF 0
  TYPE STANDARD
  FIMP 
  CURV 0.0 0 0 0 0 ""
  HIDE 0 0 0 0 0 0 0 0 0 0
  MIRR 2 0
  SLAB 1
  DISZ INFINITY
  DIAM 0 0 0 0 1 ""
  POPS 0 0 0 0 0 0 0 0 1 1 1 1 0 0 0 0
SURF 1
  COMM Dummy
  STOP
  TYPE STANDARD
  FIMP 
  CURV 0.0 0 0 0 0 ""
  HIDE 0 0 0 0 0 0 0 0 0 0
  MIRR 2 0
  SLAB 4
  DISZ 1.0E+1
  DIAM 5.0 0 0 0 1 ""
  POPS 0 0 0 0 0 0 0 0 1 1 1 1 0 0 0 0
SURF 2
  COMM Substrat
  TYPE STANDARD
  FIMP 
  CURV 0.0 0 0 0 0 ""
  HIDE 0 0 0 0 0 0 0 0 0 0
  MIRR 2 0
  SLAB 2
  DISZ 1.1
  GLAS F_SILICA 0 0 1.5 4.0E+1 0 0 0 0 0 0 
  DIAM 2.5E+1 1 0 0 1 ""
  POPS 0 0 0 0 0 0 0 0 1 1 1 1 0 0 0 0
  FLAP 0 2.5E+1 0
SURF 3
  COMM Grating
  TYPE DGRATING
  FIMP 
  CURV 0.0 0 0 0 0 ""
  HIDE 0 0 0 0 0 0 0 0 0 0
  MIRR 2 0
  SLAB 9
  PARM 1 4.65E-1
  PARM 2 1
  DISZ 0
  DIAM 5.0 0 0 0 1 ""
  POPS 0 0 0 0 0 0 0 0 1 1 1 1 0 0 0 0
SURF 4
  TYPE STANDARD
  FIMP 
  CURV 0.0 0 0 0 0 ""
  HIDE 0 0 0 0 0 0 0 0 0 0
  MIRR 2 0
  SLAB 5
  DISZ 3.027866875466E+1
  DIAM 5.0 0 0 0 1 ""
  POPS 0 0 0 0 0 0 0 0 1 1 1 1 0 0 0 0
SURF 5
  COMM C50-40HPX
  TYPE TOROIDAL
  FIMP 
  CURV 3.217917363882095300E-002 0 0 0 0 ""
  HIDE 0 0 0 0 0 0 0 0 0 0
  MIRR 2 0
  SLAB 7
  PARM 0 0
  PARM 1 0
  PARM 2 0
  PARM 3 1.466592634952E-6
  PARM 4 -1.029561680675E-10
  PARM 5 -1.453316180268E-13
  PARM 6 -3.079715843592E-17
  PARM 7 2.031354811525E-20
  PARM 8 5.570081467096E-24
  XDAT 1 0.000000000000E+000 0 0 1.000000000000E+000 0.000000000000E+000 0 ""
  XDAT 2 1.000000000000E+002 0 0 1.000000000000E+000 0.000000000000E+000 0 ""
  DISZ 1.4E+1
  GLAS S-LAH64 0 0 0 0 0 0 0 0 0 0 
  CONI -1.
  DIAM 2.5E+1 1 0 0 1 ""
  POPS 0 0 0 0 0 0 0 0 1 1 1 1 0 0 0 0
  SQAP 2.5E+1 2.5E+1 0
SURF 6
  TYPE STANDARD
  FIMP 
  CURV 0.0 0 0 0 0 ""
  HIDE 0 0 0 0 0 0 0 0 0 0
  MIRR 2 0
  SLAB 8
  DISZ 2.751409945753E+1
  DIAM 2.5E+1 1 0 0 1 ""
  POPS 0 0 0 0 0 0 0 0 1 1 1 1 0 0 0 0
  SQAP 2.5E+1 2.5E+1 5
SURF 7
  TYPE STANDARD
  FIMP 
  CURV 0.0 0 0 0 0 ""
  HIDE 0 0 0 0 0 0 0 0 0 0
  MIRR 2 0
  SLAB 6
  DISZ 2.622040199958E+1
  DIAM 1.422340251475E+1 0 0 0 1 ""
  POPS 0 0 0 0 0 0 0 0 1 1 1 1 0 0 0 0
SURF 8
  TYPE STANDARD
  FIMP 
  CURV -0.0 0 0 0 0 ""
  HIDE 0 0 0 0 0 0 0 0 0 0
  MIRR 2 0
  SLAB 11
  DISZ 1.55E+1
  GLAS S-LAH64 0 0 0 0 0 0 0 0 0 0 
  DIAM 1.79283313627E+1 0 0 0 1 ""
  POPS 0 0 0 0 0 0 0 0 1 1 1 1 0 0 0 0
  FLAP 0 1.79283313627E+1 0
SURF 9
  COMM A50-40HPX
  TYPE EVENASPH
  FIMP 
  CURV -3.218020917135961500E-002 0 0 0 0 ""
  HIDE 0 0 0 0 0 0 0 0 0 0
  MIRR 2 0
  SLAB 12
  PARM 1 0
  PARM 2 -4.366522135427E-7
  PARM 3 2.271359087825E-10
  PARM 4 1.704217360999E-13
  PARM 5 3.680934404878E-17
  PARM 6 -8.944345914633E-21
  PARM 7 -1.850118782323E-23
  PARM 8 6.270433312134E-27
  DISZ 2.926550097849E+1
  CONI -7.44E-1
  VDSZ 0 0
  DIAM 2.5E+1 1 0 0 1 ""
  POPS 0 0 0 0 0 0 0 0 1 1 1 1 0 0 0 0
  FLAP 0 2.5E+1 0
SURF 10
  TYPE STANDARD
  FIMP 
  CURV 0.0 0 0 0 0 ""
  HIDE 0 0 0 0 0 0 0 0 0 0
  MIRR 2 0
  SLAB 10
  DISZ 0
  DIAM 5.626484723489 0 0 0 1 ""
  POPS 0 0 0 0 0 0 0 0 1 1 1 1 0 0 0 0
CONF 1 0 0 0 0 0 0 0 0 0
DMFS 0 0 0 0 0 0 0 0 0 0
BLNK Sequential merit function: RMS spot x centroid GQ 20 rings 12 arms
CONF 1 0 0 0 0 0 0 0 0 0
BLNK No default air thickness boundary constraints.
BLNK No default glass thickness boundary constraints.
BLNK Operands for field 1.
TRCX 0 1 0 0 1.517063899126E-2 5.661759549866E-2 0 7.685560476199E-4 0 0
TRCX 0 1 0 0 3.473775502017E-2 1.296430666762E-1 0 1.771571577585E-3 0 0
TRCX 0 1 0 0 5.421797911361E-2 2.023442527357E-1 0 2.734583980952E-3 0 0
TRCX 0 1 0 0 7.340680952414E-2 2.739579427656E-1 0 3.633633327112E-3 0 0
TRCX 0 1 0 0 9.217521413695E-2 3.440025823576E-1 0 4.447540494408E-3 0 0
TRCX 0 1 0 0 1.104078361902E-1 4.120476542156E-1 0 5.157209351455E-3 0 0
TRCX 0 1 0 0 1.279955037387E-1 4.776857230934E-1 0 5.746000821016E-3 0 0
TRCX 0 1 0 0 1.448339341078E-1 5.405276007505E-1 0 6.200112404699E-3 0 0
TRCX 0 1 0 0 1.608237224302E-1 6.002023031719E-1 0 6.50889942245E-3 0 0
TRCX 0 1 0 0 1.758706815013E-1 6.563583189246E-1 0 6.665123872512E-3 0 0
TRCX 0 1 0 0 1.898862856977E-1 7.086652658842E-1 0 6.665123872512E-3 0 0
TRCX 0 1 0 0 2.027881367622E-1 7.568156295686E-1 0 6.50889942245E-3 0 0
TRCX 0 1 0 0 2.145004187376E-1 8.005264609737E-1 0 6.200112404699E-3 0 0
TRCX 0 1 0 0 2.249543267653E-1 8.395409768707E-1 0 5.746000821016E-3 0 0
TRCX 0 1 0 0 2.340884615174E-1 8.736300318485E-1 0 5.157209351455E-3 0 0
TRCX 0 1 0 0 2.418491844241E-1 9.025934440397E-1 0 4.447540494408E-3 0 0
TRCX 0 1 0 0 2.48190931388E-1 9.26261165918E-1 0 3.633633327112E-3 0 0
TRCX 0 1 0 0 2.530764881387E-1 9.444943119347E-1 0 2.734583980952E-3 0 0
TRCX 0 1 0 0 2.564772630935E-1 9.571861768512E-1 0 1.771571577585E-3 0 0
TRCX 0 1 0 0 2.58374050207E-1 9.642650827299E-1 0 7.685560476199E-4 0 0
TRCX 0 1 0 0 4.14469565074E-2 4.14469565074E-2 0 7.685560476199E-4 0 0
TRCX 0 1 0 0 9.4905311656E-2 9.4905311656E-2 0 1.771571577585E-3 0 0
TRCX 0 1 0 0 1.481262736221E-1 1.481262736221E-1 0 2.734583980952E-3 0 0
TRCX 0 1 0 0 2.005511332415E-1 2.005511332415E-1 0 3.633633327112E-3 0 0
TRCX 0 1 0 0 2.518273682207E-1 2.518273682207E-1 0 4.447540494408E-3 0 0
TRCX 0 1 0 0 3.016398180254E-1 3.016398180254E-1 0 5.157209351455E-3 0 0
TRCX 0 1 0 0 3.496902193546E-1 3.496902193546E-1 0 5.746000821016E-3 0 0
TRCX 0 1 0 0 3.956936666427E-1 3.956936666427E-1 0 6.200112404699E-3 0 0
TRCX 0 1 0 0 4.393785807417E-1 4.393785807417E-1 0 6.50889942245E-3 0 0
TRCX 0 1 0 0 4.804876374233E-1 4.804876374233E-1 0 6.665123872512E-3 0 0
TRCX 0 1 0 0 5.187789801865E-1 5.187789801865E-1 0 6.665123872512E-3 0 0
TRCX 0 1 0 0 5.540274928065E-1 5.540274928065E-1 0 6.50889942245E-3 0 0
TRCX 0 1 0 0 5.860260422361E-1 5.860260422361E-1 0 6.200112404699E-3 0 0
TRCX 0 1 0 0 6.145866501053E-1 6.145866501053E-1 0 5.746000821016E-3 0 0
TRCX 0 1 0 0 6.395415703311E-1 6.395415703311E-1 0 5.157209351455E-3 0 0
TRCX 0 1 0 0 6.607442596157E-1 6.607442596157E-1 0 4.447540494408E-3 0 0
TRCX 0 1 0 0 6.7807023453E-1 6.7807023453E-1 0 3.633633327112E-3 0 0
TRCX 0 1 0 0 6.91417823796E-1 6.91417823796E-1 0 2.734583980952E-3 0 0
TRCX 0 1 0 0 7.007089137577E-1 7.007089137577E-1 0 1.771571577585E-3 0 0
TRCX 0 1 0 0 7.058910325229E-1 7.058910325229E-1 0 7.685560476199E-4 0 0
TRCX 0 1 0 0 5.661759549866E-2 1.517063899126E-2 0 7.685560476199E-4 0 0
TRCX 0 1 0 0 1.296430666762E-1 3.473775502017E-2 0 1.771571577585E-3 0 0
TRCX 0 1 0 0 2.023442527357E-1 5.421797911361E-2 0 2.734583980952E-3 0 0
TRCX 0 1 0 0 2.739579427656E-1 7.340680952414E-2 0 3.633633327112E-3 0 0
TRCX 0 1 0 0 3.440025823576E-1 9.217521413695E-2 0 4.447540494408E-3 0 0
TRCX 0 1 0 0 4.120476542156E-1 1.104078361902E-1 0 5.157209351455E-3 0 0
TRCX 0 1 0 0 4.776857230934E-1 1.279955037387E-1 0 5.746000821016E-3 0 0
TRCX 0 1 0 0 5.405276007505E-1 1.448339341078E-1 0 6.200112404699E-3 0 0
TRCX 0 1 0 0 6.002023031719E-1 1.608237224302E-1 0 6.50889942245E-3 0 0
TRCX 0 1 0 0 6.563583189246E-1 1.758706815013E-1 0 6.665123872512E-3 0 0
TRCX 0 1 0 0 7.086652658842E-1 1.898862856977E-1 0 6.665123872512E-3 0 0
TRCX 0 1 0 0 7.568156295686E-1 2.027881367622E-1 0 6.50889942245E-3 0 0
TRCX 0 1 0 0 8.005264609737E-1 2.145004187376E-1 0 6.200112404699E-3 0 0
TRCX 0 1 0 0 8.395409768707E-1 2.249543267653E-1 0 5.746000821016E-3 0 0
TRCX 0 1 0 0 8.736300318485E-1 2.340884615174E-1 0 5.157209351455E-3 0 0
TRCX 0 1 0 0 9.025934440397E-1 2.418491844241E-1 0 4.447540494408E-3 0 0
TRCX 0 1 0 0 9.26261165918E-1 2.48190931388E-1 0 3.633633327112E-3 0 0
TRCX 0 1 0 0 9.444943119347E-1 2.530764881387E-1 0 2.734583980952E-3 0 0
TRCX 0 1 0 0 9.571861768512E-1 2.564772630935E-1 0 1.771571577585E-3 0 0
TRCX 0 1 0 0 9.642650827299E-1 2.58374050207E-1 0 7.685560476199E-4 0 0
TRCX 0 1 0 0 5.661759549866E-2 -1.517063899126E-2 0 7.685560476199E-4 0 0
TRCX 0 1 0 0 1.296430666762E-1 -3.473775502017E-2 0 1.771571577585E-3 0 0
TRCX 0 1 0 0 2.023442527357E-1 -5.421797911361E-2 0 2.734583980952E-3 0 0
TRCX 0 1 0 0 2.739579427656E-1 -7.340680952414E-2 0 3.633633327112E-3 0 0
TRCX 0 1 0 0 3.440025823576E-1 -9.217521413695E-2 0 4.447540494408E-3 0 0
TRCX 0 1 0 0 4.120476542156E-1 -1.104078361902E-1 0 5.157209351455E-3 0 0
TRCX 0 1 0 0 4.776857230934E-1 -1.279955037387E-1 0 5.746000821016E-3 0 0
TRCX 0 1 0 0 5.405276007505E-1 -1.448339341078E-1 0 6.200112404699E-3 0 0
TRCX 0 1 0 0 6.002023031719E-1 -1.608237224302E-1 0 6.50889942245E-3 0 0
TRCX 0 1 0 0 6.563583189246E-1 -1.758706815013E-1 0 6.665123872512E-3 0 0
TRCX 0 1 0 0 7.086652658842E-1 -1.898862856977E-1 0 6.665123872512E-3 0 0
TRCX 0 1 0 0 7.568156295686E-1 -2.027881367622E-1 0 6.50889942245E-3 0 0
TRCX 0 1 0 0 8.005264609737E-1 -2.145004187376E-1 0 6.200112404699E-3 0 0
TRCX 0 1 0 0 8.395409768707E-1 -2.249543267653E-1 0 5.746000821016E-3 0 0
TRCX 0 1 0 0 8.736300318485E-1 -2.340884615174E-1 0 5.157209351455E-3 0 0
TRCX 0 1 0 0 9.025934440397E-1 -2.418491844241E-1 0 4.447540494408E-3 0 0
TRCX 0 1 0 0 9.26261165918E-1 -2.48190931388E-1 0 3.633633327112E-3 0 0
TRCX 0 1 0 0 9.444943119347E-1 -2.530764881387E-1 0 2.734583980952E-3 0 0
TRCX 0 1 0 0 9.571861768512E-1 -2.564772630935E-1 0 1.771571577585E-3 0 0
TRCX 0 1 0 0 9.642650827299E-1 -2.58374050207E-1 0 7.685560476199E-4 0 0
TRCX 0 1 0 0 4.14469565074E-2 -4.14469565074E-2 0 7.685560476199E-4 0 0
TRCX 0 1 0 0 9.4905311656E-2 -9.4905311656E-2 0 1.771571577585E-3 0 0
TRCX 0 1 0 0 1.481262736221E-1 -1.481262736221E-1 0 2.734583980952E-3 0 0
TRCX 0 1 0 0 2.005511332415E-1 -2.005511332415E-1 0 3.633633327112E-3 0 0
TRCX 0 1 0 0 2.518273682207E-1 -2.518273682207E-1 0 4.447540494408E-3 0 0
TRCX 0 1 0 0 3.016398180254E-1 -3.016398180254E-1 0 5.157209351455E-3 0 0
TRCX 0 1 0 0 3.496902193546E-1 -3.496902193546E-1 0 5.746000821016E-3 0 0
TRCX 0 1 0 0 3.956936666427E-1 -3.956936666427E-1 0 6.200112404699E-3 0 0
TRCX 0 1 0 0 4.393785807417E-1 -4.393785807417E-1 0 6.50889942245E-3 0 0
TRCX 0 1 0 0 4.804876374233E-1 -4.804876374233E-1 0 6.665123872512E-3 0 0
TRCX 0 1 0 0 5.187789801865E-1 -5.187789801865E-1 0 6.665123872512E-3 0 0
TRCX 0 1 0 0 5.540274928065E-1 -5.540274928065E-1 0 6.50889942245E-3 0 0
TRCX 0 1 0 0 5.860260422361E-1 -5.860260422361E-1 0 6.200112404699E-3 0 0
TRCX 0 1 0 0 6.145866501053E-1 -6.145866501053E-1 0 5.746000821016E-3 0 0
TRCX 0 1 0 0 6.395415703311E-1 -6.395415703311E-1 0 5.157209351455E-3 0 0
TRCX 0 1 0 0 6.607442596157E-1 -6.607442596157E-1 0 4.447540494408E-3 0 0
TRCX 0 1 0 0 6.7807023453E-1 -6.7807023453E-1 0 3.633633327112E-3 0 0
TRCX 0 1 0 0 6.91417823796E-1 -6.91417823796E-1 0 2.734583980952E-3 0 0
TRCX 0 1 0 0 7.007089137577E-1 -7.007089137577E-1 0 1.771571577585E-3 0 0
TRCX 0 1 0 0 7.058910325229E-1 -7.058910325229E-1 0 7.685560476199E-4 0 0
TRCX 0 1 0 0 1.517063899126E-2 -5.661759549866E-2 0 7.685560476199E-4 0 0
TRCX 0 1 0 0 3.473775502017E-2 -1.296430666762E-1 0 1.771571577585E-3 0 0
TRCX 0 1 0 0 5.421797911361E-2 -2.023442527357E-1 0 2.734583980952E-3 0 0
TRCX 0 1 0 0 7.340680952414E-2 -2.739579427656E-1 0 3.633633327112E-3 0 0
TRCX 0 1 0 0 9.217521413695E-2 -3.440025823576E-1 0 4.447540494408E-3 0 0
TRCX 0 1 0 0 1.104078361902E-1 -4.120476542156E-1 0 5.157209351455E-3 0 0
TRCX 0 1 0 0 1.279955037387E-1 -4.776857230934E-1 0 5.746000821016E-3 0 0
TRCX 0 1 0 0 1.448339341078E-1 -5.405276007505E-1 0 6.200112404699E-3 0 0
TRCX 0 1 0 0 1.608237224302E-1 -6.002023031719E-1 0 6.50889942245E-3 0 0
TRCX 0 1 0 0 1.758706815013E-1 -6.563583189246E-1 0 6.665123872512E-3 0 0
TRCX 0 1 0 0 1.898862856977E-1 -7.086652658842E-1 0 6.665123872512E-3 0 0
TRCX 0 1 0 0 2.027881367622E-1 -7.568156295686E-1 0 6.50889942245E-3 0 0
TRCX 0 1 0 0 2.145004187376E-1 -8.005264609737E-1 0 6.200112404699E-3 0 0
TRCX 0 1 0 0 2.249543267653E-1 -8.395409768707E-1 0 5.746000821016E-3 0 0
TRCX 0 1 0 0 2.340884615174E-1 -8.736300318485E-1 0 5.157209351455E-3 0 0
TRCX 0 1 0 0 2.418491844241E-1 -9.025934440397E-1 0 4.447540494408E-3 0 0
TRCX 0 1 0 0 2.48190931388E-1 -9.26261165918E-1 0 3.633633327112E-3 0 0
TRCX 0 1 0 0 2.530764881387E-1 -9.444943119347E-1 0 2.734583980952E-3 0 0
TRCX 0 1 0 0 2.564772630935E-1 -9.571861768512E-1 0 1.771571577585E-3 0 0
TRCX 0 1 0 0 2.58374050207E-1 -9.642650827299E-1 0 7.685560476199E-4 0 0
TRCX 0 1 0 0 -1.517063899126E-2 -5.661759549866E-2 0 7.685560476199E-4 0 0
TRCX 0 1 0 0 -3.473775502017E-2 -1.296430666762E-1 0 1.771571577585E-3 0 0
TRCX 0 1 0 0 -5.421797911361E-2 -2.023442527357E-1 0 2.734583980952E-3 0 0
TRCX 0 1 0 0 -7.340680952414E-2 -2.739579427656E-1 0 3.633633327112E-3 0 0
TRCX 0 1 0 0 -9.217521413695E-2 -3.440025823576E-1 0 4.447540494408E-3 0 0
TRCX 0 1 0 0 -1.104078361902E-1 -4.120476542156E-1 0 5.157209351455E-3 0 0
TRCX 0 1 0 0 -1.279955037387E-1 -4.776857230934E-1 0 5.746000821016E-3 0 0
TRCX 0 1 0 0 -1.448339341078E-1 -5.405276007505E-1 0 6.200112404699E-3 0 0
TRCX 0 1 0 0 -1.608237224302E-1 -6.002023031719E-1 0 6.50889942245E-3 0 0
TRCX 0 1 0 0 -1.758706815013E-1 -6.563583189246E-1 0 6.665123872512E-3 0 0
TRCX 0 1 0 0 -1.898862856977E-1 -7.086652658842E-1 0 6.665123872512E-3 0 0
TRCX 0 1 0 0 -2.027881367622E-1 -7.568156295686E-1 0 6.50889942245E-3 0 0
TRCX 0 1 0 0 -2.145004187376E-1 -8.005264609737E-1 0 6.200112404699E-3 0 0
TRCX 0 1 0 0 -2.249543267653E-1 -8.395409768707E-1 0 5.746000821016E-3 0 0
TRCX 0 1 0 0 -2.340884615174E-1 -8.736300318485E-1 0 5.157209351455E-3 0 0
TRCX 0 1 0 0 -2.418491844241E-1 -9.025934440397E-1 0 4.447540494408E-3 0 0
TRCX 0 1 0 0 -2.48190931388E-1 -9.26261165918E-1 0 3.633633327112E-3 0 0
TRCX 0 1 0 0 -2.530764881387E-1 -9.444943119347E-1 0 2.734583980952E-3 0 0
TRCX 0 1 0 0 -2.564772630935E-1 -9.571861768512E-1 0 1.771571577585E-3 0 0
TRCX 0 1 0 0 -2.58374050207E-1 -9.642650827299E-1 0 7.685560476199E-4 0 0
TRCX 0 1 0 0 -4.14469565074E-2 -4.14469565074E-2 0 7.685560476199E-4 0 0
TRCX 0 1 0 0 -9.4905311656E-2 -9.4905311656E-2 0 1.771571577585E-3 0 0
TRCX 0 1 0 0 -1.481262736221E-1 -1.481262736221E-1 0 2.734583980952E-3 0 0
TRCX 0 1 0 0 -2.005511332415E-1 -2.005511332415E-1 0 3.633633327112E-3 0 0
TRCX 0 1 0 0 -2.518273682207E-1 -2.518273682207E-1 0 4.447540494408E-3 0 0
TRCX 0 1 0 0 -3.016398180254E-1 -3.016398180254E-1 0 5.157209351455E-3 0 0
TRCX 0 1 0 0 -3.496902193546E-1 -3.496902193546E-1 0 5.746000821016E-3 0 0
TRCX 0 1 0 0 -3.956936666427E-1 -3.956936666427E-1 0 6.200112404699E-3 0 0
TRCX 0 1 0 0 -4.393785807417E-1 -4.393785807417E-1 0 6.50889942245E-3 0 0
TRCX 0 1 0 0 -4.804876374233E-1 -4.804876374233E-1 0 6.665123872512E-3 0 0
TRCX 0 1 0 0 -5.187789801865E-1 -5.187789801865E-1 0 6.665123872512E-3 0 0
TRCX 0 1 0 0 -5.540274928065E-1 -5.540274928065E-1 0 6.50889942245E-3 0 0
TRCX 0 1 0 0 -5.860260422361E-1 -5.860260422361E-1 0 6.200112404699E-3 0 0
TRCX 0 1 0 0 -6.145866501053E-1 -6.145866501053E-1 0 5.746000821016E-3 0 0
TRCX 0 1 0 0 -6.395415703311E-1 -6.395415703311E-1 0 5.157209351455E-3 0 0
TRCX 0 1 0 0 -6.607442596157E-1 -6.607442596157E-1 0 4.447540494408E-3 0 0
TRCX 0 1 0 0 -6.7807023453E-1 -6.7807023453E-1 0 3.633633327112E-3 0 0
TRCX 0 1 0 0 -6.91417823796E-1 -6.91417823796E-1 0 2.734583980952E-3 0 0
TRCX 0 1 0 0 -7.007089137577E-1 -7.007089137577E-1 0 1.771571577585E-3 0 0
TRCX 0 1 0 0 -7.058910325229E-1 -7.058910325229E-1 0 7.685560476199E-4 0 0
TRCX 0 1 0 0 -5.661759549866E-2 -1.517063899126E-2 0 7.685560476199E-4 0 0
TRCX 0 1 0 0 -1.296430666762E-1 -3.473775502017E-2 0 1.771571577585E-3 0 0
TRCX 0 1 0 0 -2.023442527357E-1 -5.421797911361E-2 0 2.734583980952E-3 0 0
TRCX 0 1 0 0 -2.739579427656E-1 -7.340680952414E-2 0 3.633633327112E-3 0 0
TRCX 0 1 0 0 -3.440025823576E-1 -9.217521413695E-2 0 4.447540494408E-3 0 0
TRCX 0 1 0 0 -4.120476542156E-1 -1.104078361902E-1 0 5.157209351455E-3 0 0
TRCX 0 1 0 0 -4.776857230934E-1 -1.279955037387E-1 0 5.746000821016E-3 0 0
TRCX 0 1 0 0 -5.405276007505E-1 -1.448339341078E-1 0 6.200112404699E-3 0 0
TRCX 0 1 0 0 -6.002023031719E-1 -1.608237224302E-1 0 6.50889942245E-3 0 0
TRCX 0 1 0 0 -6.563583189246E-1 -1.758706815013E-1 0 6.665123872512E-3 0 0
TRCX 0 1 0 0 -7.086652658842E-1 -1.898862856977E-1 0 6.665123872512E-3 0 0
TRCX 0 1 0 0 -7.568156295686E-1 -2.027881367622E-1 0 6.50889942245E-3 0 0
TRCX 0 1 0 0 -8.005264609737E-1 -2.145004187376E-1 0 6.200112404699E-3 0 0
TRCX 0 1 0 0 -8.395409768707E-1 -2.249543267653E-1 0 5.746000821016E-3 0 0
TRCX 0 1 0 0 -8.736300318485E-1 -2.340884615174E-1 0 5.157209351455E-3 0 0
TRCX 0 1 0 0 -9.025934440397E-1 -2.418491844241E-1 0 4.447540494408E-3 0 0
TRCX 0 1 0 0 -9.26261165918E-1 -2.48190931388E-1 0 3.633633327112E-3 0 0
TRCX 0 1 0 0 -9.444943119347E-1 -2.530764881387E-1 0 2.734583980952E-3 0 0
TRCX 0 1 0 0 -9.571861768512E-1 -2.564772630935E-1 0 1.771571577585E-3 0 0
TRCX 0 1 0 0 -9.642650827299E-1 -2.58374050207E-1 0 7.685560476199E-4 0 0
TRCX 0 1 0 0 -5.661759549866E-2 1.517063899126E-2 0 7.685560476199E-4 0 0
TRCX 0 1 0 0 -1.296430666762E-1 3.473775502017E-2 0 1.771571577585E-3 0 0
TRCX 0 1 0 0 -2.023442527357E-1 5.421797911361E-2 0 2.734583980952E-3 0 0
TRCX 0 1 0 0 -2.739579427656E-1 7.340680952414E-2 0 3.633633327112E-3 0 0
TRCX 0 1 0 0 -3.440025823576E-1 9.217521413695E-2 0 4.447540494408E-3 0 0
TRCX 0 1 0 0 -4.120476542156E-1 1.104078361902E-1 0 5.157209351455E-3 0 0
TRCX 0 1 0 0 -4.776857230934E-1 1.279955037387E-1 0 5.746000821016E-3 0 0
TRCX 0 1 0 0 -5.405276007505E-1 1.448339341078E-1 0 6.200112404699E-3 0 0
TRCX 0 1 0 0 -6.002023031719E-1 1.608237224302E-1 0 6.50889942245E-3 0 0
TRCX 0 1 0 0 -6.563583189246E-1 1.758706815013E-1 0 6.665123872512E-3 0 0
TRCX 0 1 0 0 -7.086652658842E-1 1.898862856977E-1 0 6.665123872512E-3 0 0
TRCX 0 1 0 0 -7.568156295686E-1 2.027881367622E-1 0 6.50889942245E-3 0 0
TRCX 0 1 0 0 -8.005264609737E-1 2.145004187376E-1 0 6.200112404699E-3 0 0
TRCX 0 1 0 0 -8.395409768707E-1 2.249543267653E-1 0 5.746000821016E-3 0 0
TRCX 0 1 0 0 -8.736300318485E-1 2.340884615174E-1 0 5.157209351455E-3 0 0
TRCX 0 1 0 0 -9.025934440397E-1 2.418491844241E-1 0 4.447540494408E-3 0 0
TRCX 0 1 0 0 -9.26261165918E-1 2.48190931388E-1 0 3.633633327112E-3 0 0
TRCX 0 1 0 0 -9.444943119347E-1 2.530764881387E-1 0 2.734583980952E-3 0 0
TRCX 0 1 0 0 -9.571861768512E-1 2.564772630935E-1 0 1.771571577585E-3 0 0
TRCX 0 1 0 0 -9.642650827299E-1 2.58374050207E-1 0 7.685560476199E-4 0 0
TRCX 0 1 0 0 -4.14469565074E-2 4.14469565074E-2 0 7.685560476199E-4 0 0
TRCX 0 1 0 0 -9.490531165599E-2 9.4905311656E-2 0 1.771571577585E-3 0 0
TRCX 0 1 0 0 -1.481262736221E-1 1.481262736221E-1 0 2.734583980952E-3 0 0
TRCX 0 1 0 0 -2.005511332415E-1 2.005511332415E-1 0 3.633633327112E-3 0 0
TRCX 0 1 0 0 -2.518273682207E-1 2.518273682207E-1 0 4.447540494408E-3 0 0
TRCX 0 1 0 0 -3.016398180254E-1 3.016398180254E-1 0 5.157209351455E-3 0 0
TRCX 0 1 0 0 -3.496902193546E-1 3.496902193546E-1 0 5.746000821016E-3 0 0
TRCX 0 1 0 0 -3.956936666427E-1 3.956936666427E-1 0 6.200112404699E-3 0 0
TRCX 0 1 0 0 -4.393785807417E-1 4.393785807417E-1 0 6.50889942245E-3 0 0
TRCX 0 1 0 0 -4.804876374233E-1 4.804876374233E-1 0 6.665123872512E-3 0 0
TRCX 0 1 0 0 -5.187789801865E-1 5.187789801865E-1 0 6.665123872512E-3 0 0
TRCX 0 1 0 0 -5.540274928065E-1 5.540274928065E-1 0 6.50889942245E-3 0 0
TRCX 0 1 0 0 -5.860260422361E-1 5.860260422361E-1 0 6.200112404699E-3 0 0
TRCX 0 1 0 0 -6.145866501053E-1 6.145866501053E-1 0 5.746000821016E-3 0 0
TRCX 0 1 0 0 -6.395415703311E-1 6.395415703311E-1 0 5.157209351455E-3 0 0
TRCX 0 1 0 0 -6.607442596157E-1 6.607442596157E-1 0 4.447540494408E-3 0 0
TRCX 0 1 0 0 -6.7807023453E-1 6.7807023453E-1 0 3.633633327112E-3 0 0
TRCX 0 1 0 0 -6.91417823796E-1 6.91417823796E-1 0 2.734583980952E-3 0 0
TRCX 0 1 0 0 -7.007089137577E-1 7.007089137577E-1 0 1.771571577585E-3 0 0
TRCX 0 1 0 0 -7.058910325229E-1 7.058910325229E-1 0 7.685560476199E-4 0 0
TRCX 0 1 0 0 -1.517063899126E-2 5.661759549866E-2 0 7.685560476199E-4 0 0
TRCX 0 1 0 0 -3.473775502017E-2 1.296430666762E-1 0 1.771571577585E-3 0 0
TRCX 0 1 0 0 -5.421797911361E-2 2.023442527357E-1 0 2.734583980952E-3 0 0
TRCX 0 1 0 0 -7.340680952414E-2 2.739579427656E-1 0 3.633633327112E-3 0 0
TRCX 0 1 0 0 -9.217521413695E-2 3.440025823576E-1 0 4.447540494408E-3 0 0
TRCX 0 1 0 0 -1.104078361902E-1 4.120476542156E-1 0 5.157209351455E-3 0 0
TRCX 0 1 0 0 -1.279955037387E-1 4.776857230934E-1 0 5.746000821016E-3 0 0
TRCX 0 1 0 0 -1.448339341078E-1 5.405276007505E-1 0 6.200112404699E-3 0 0
TRCX 0 1 0 0 -1.608237224302E-1 6.002023031719E-1 0 6.50889942245E-3 0 0
TRCX 0 1 0 0 -1.758706815013E-1 6.563583189246E-1 0 6.665123872512E-3 0 0
TRCX 0 1 0 0 -1.898862856977E-1 7.086652658842E-1 0 6.665123872512E-3 0 0
TRCX 0 1 0 0 -2.027881367622E-1 7.568156295686E-1 0 6.50889942245E-3 0 0
TRCX 0 1 0 0 -2.145004187376E-1 8.005264609737E-1 0 6.200112404699E-3 0 0
TRCX 0 1 0 0 -2.249543267653E-1 8.395409768707E-1 0 5.746000821016E-3 0 0
TRCX 0 1 0 0 -2.340884615174E-1 8.736300318485E-1 0 5.157209351455E-3 0 0
TRCX 0 1 0 0 -2.418491844241E-1 9.025934440397E-1 0 4.447540494408E-3 0 0
TRCX 0 1 0 0 -2.48190931388E-1 9.26261165918E-1 0 3.633633327112E-3 0 0
TRCX 0 1 0 0 -2.530764881387E-1 9.444943119347E-1 0 2.734583980952E-3 0 0
TRCX 0 1 0 0 -2.564772630935E-1 9.571861768512E-1 0 1.771571577585E-3 0 0
TRCX 0 1 0 0 -2.58374050207E-1 9.642650827299E-1 0 7.685560476199E-4 0 0
TRCX 0 2 0 0 1.517063899126E-2 5.661759549866E-2 0 7.685560476199E-4 0 0
TRCX 0 2 0 0 3.473775502017E-2 1.296430666762E-1 0 1.771571577585E-3 0 0
TRCX 0 2 0 0 5.421797911361E-2 2.023442527357E-1 0 2.734583980952E-3 0 0
TRCX 0 2 0 0 7.340680952414E-2 2.739579427656E-1 0 3.633633327112E-3 0 0
TRCX 0 2 0 0 9.217521413695E-2 3.440025823576E-1 0 4.447540494408E-3 0 0
TRCX 0 2 0 0 1.104078361902E-1 4.120476542156E-1 0 5.157209351455E-3 0 0
TRCX 0 2 0 0 1.279955037387E-1 4.776857230934E-1 0 5.746000821016E-3 0 0
TRCX 0 2 0 0 1.448339341078E-1 5.405276007505E-1 0 6.200112404699E-3 0 0
TRCX 0 2 0 0 1.608237224302E-1 6.002023031719E-1 0 6.50889942245E-3 0 0
TRCX 0 2 0 0 1.758706815013E-1 6.563583189246E-1 0 6.665123872512E-3 0 0
TRCX 0 2 0 0 1.898862856977E-1 7.086652658842E-1 0 6.665123872512E-3 0 0
TRCX 0 2 0 0 2.027881367622E-1 7.568156295686E-1 0 6.50889942245E-3 0 0
TRCX 0 2 0 0 2.145004187376E-1 8.005264609737E-1 0 6.200112404699E-3 0 0
TRCX 0 2 0 0 2.249543267653E-1 8.395409768707E-1 0 5.746000821016E-3 0 0
TRCX 0 2 0 0 2.340884615174E-1 8.736300318485E-1 0 5.157209351455E-3 0 0
TRCX 0 2 0 0 2.418491844241E-1 9.025934440397E-1 0 4.447540494408E-3 0 0
TRCX 0 2 0 0 2.48190931388E-1 9.26261165918E-1 0 3.633633327112E-3 0 0
TRCX 0 2 0 0 2.530764881387E-1 9.444943119347E-1 0 2.734583980952E-3 0 0
TRCX 0 2 0 0 2.564772630935E-1 9.571861768512E-1 0 1.771571577585E-3 0 0
TRCX 0 2 0 0 2.58374050207E-1 9.642650827299E-1 0 7.685560476199E-4 0 0
TRCX 0 2 0 0 4.14469565074E-2 4.14469565074E-2 0 7.685560476199E-4 0 0
TRCX 0 2 0 0 9.4905311656E-2 9.4905311656E-2 0 1.771571577585E-3 0 0
TRCX 0 2 0 0 1.481262736221E-1 1.481262736221E-1 0 2.734583980952E-3 0 0
TRCX 0 2 0 0 2.005511332415E-1 2.005511332415E-1 0 3.633633327112E-3 0 0
TRCX 0 2 0 0 2.518273682207E-1 2.518273682207E-1 0 4.447540494408E-3 0 0
TRCX 0 2 0 0 3.016398180254E-1 3.016398180254E-1 0 5.157209351455E-3 0 0
TRCX 0 2 0 0 3.496902193546E-1 3.496902193546E-1 0 5.746000821016E-3 0 0
TRCX 0 2 0 0 3.956936666427E-1 3.956936666427E-1 0 6.200112404699E-3 0 0
TRCX 0 2 0 0 4.393785807417E-1 4.393785807417E-1 0 6.50889942245E-3 0 0
TRCX 0 2 0 0 4.804876374233E-1 4.804876374233E-1 0 6.665123872512E-3 0 0
TRCX 0 2 0 0 5.187789801865E-1 5.187789801865E-1 0 6.665123872512E-3 0 0
TRCX 0 2 0 0 5.540274928065E-1 5.540274928065E-1 0 6.50889942245E-3 0 0
TRCX 0 2 0 0 5.860260422361E-1 5.860260422361E-1 0 6.200112404699E-3 0 0
TRCX 0 2 0 0 6.145866501053E-1 6.145866501053E-1 0 5.746000821016E-3 0 0
TRCX 0 2 0 0 6.395415703311E-1 6.395415703311E-1 0 5.157209351455E-3 0 0
TRCX 0 2 0 0 6.607442596157E-1 6.607442596157E-1 0 4.447540494408E-3 0 0
TRCX 0 2 0 0 6.7807023453E-1 6.7807023453E-1 0 3.633633327112E-3 0 0
TRCX 0 2 0 0 6.91417823796E-1 6.91417823796E-1 0 2.734583980952E-3 0 0
TRCX 0 2 0 0 7.007089137577E-1 7.007089137577E-1 0 1.771571577585E-3 0 0
TRCX 0 2 0 0 7.058910325229E-1 7.058910325229E-1 0 7.685560476199E-4 0 0
TRCX 0 2 0 0 5.661759549866E-2 1.517063899126E-2 0 7.685560476199E-4 0 0
TRCX 0 2 0 0 1.296430666762E-1 3.473775502017E-2 0 1.771571577585E-3 0 0
TRCX 0 2 0 0 2.023442527357E-1 5.421797911361E-2 0 2.734583980952E-3 0 0
TRCX 0 2 0 0 2.739579427656E-1 7.340680952414E-2 0 3.633633327112E-3 0 0
TRCX 0 2 0 0 3.440025823576E-1 9.217521413695E-2 0 4.447540494408E-3 0 0
TRCX 0 2 0 0 4.120476542156E-1 1.104078361902E-1 0 5.157209351455E-3 0 0
TRCX 0 2 0 0 4.776857230934E-1 1.279955037387E-1 0 5.746000821016E-3 0 0
TRCX 0 2 0 0 5.405276007505E-1 1.448339341078E-1 0 6.200112404699E-3 0 0
TRCX 0 2 0 0 6.002023031719E-1 1.608237224302E-1 0 6.50889942245E-3 0 0
TRCX 0 2 0 0 6.563583189246E-1 1.758706815013E-1 0 6.665123872512E-3 0 0
TRCX 0 2 0 0 7.086652658842E-1 1.898862856977E-1 0 6.665123872512E-3 0 0
TRCX 0 2 0 0 7.568156295686E-1 2.027881367622E-1 0 6.50889942245E-3 0 0
TRCX 0 2 0 0 8.005264609737E-1 2.145004187376E-1 0 6.200112404699E-3 0 0
TRCX 0 2 0 0 8.395409768707E-1 2.249543267653E-1 0 5.746000821016E-3 0 0
TRCX 0 2 0 0 8.736300318485E-1 2.340884615174E-1 0 5.157209351455E-3 0 0
TRCX 0 2 0 0 9.025934440397E-1 2.418491844241E-1 0 4.447540494408E-3 0 0
TRCX 0 2 0 0 9.26261165918E-1 2.48190931388E-1 0 3.633633327112E-3 0 0
TRCX 0 2 0 0 9.444943119347E-1 2.530764881387E-1 0 2.734583980952E-3 0 0
TRCX 0 2 0 0 9.571861768512E-1 2.564772630935E-1 0 1.771571577585E-3 0 0
TRCX 0 2 0 0 9.642650827299E-1 2.58374050207E-1 0 7.685560476199E-4 0 0
TRCX 0 2 0 0 5.661759549866E-2 -1.517063899126E-2 0 7.685560476199E-4 0 0
TRCX 0 2 0 0 1.296430666762E-1 -3.473775502017E-2 0 1.771571577585E-3 0 0
TRCX 0 2 0 0 2.023442527357E-1 -5.421797911361E-2 0 2.734583980952E-3 0 0
TRCX 0 2 0 0 2.739579427656E-1 -7.340680952414E-2 0 3.633633327112E-3 0 0
TRCX 0 2 0 0 3.440025823576E-1 -9.217521413695E-2 0 4.447540494408E-3 0 0
TRCX 0 2 0 0 4.120476542156E-1 -1.104078361902E-1 0 5.157209351455E-3 0 0
TRCX 0 2 0 0 4.776857230934E-1 -1.279955037387E-1 0 5.746000821016E-3 0 0
TRCX 0 2 0 0 5.405276007505E-1 -1.448339341078E-1 0 6.200112404699E-3 0 0
TRCX 0 2 0 0 6.002023031719E-1 -1.608237224302E-1 0 6.50889942245E-3 0 0
TRCX 0 2 0 0 6.563583189246E-1 -1.758706815013E-1 0 6.665123872512E-3 0 0
TRCX 0 2 0 0 7.086652658842E-1 -1.898862856977E-1 0 6.665123872512E-3 0 0
TRCX 0 2 0 0 7.568156295686E-1 -2.027881367622E-1 0 6.50889942245E-3 0 0
TRCX 0 2 0 0 8.005264609737E-1 -2.145004187376E-1 0 6.200112404699E-3 0 0
TRCX 0 2 0 0 8.395409768707E-1 -2.249543267653E-1 0 5.746000821016E-3 0 0
TRCX 0 2 0 0 8.736300318485E-1 -2.340884615174E-1 0 5.157209351455E-3 0 0
TRCX 0 2 0 0 9.025934440397E-1 -2.418491844241E-1 0 4.447540494408E-3 0 0
TRCX 0 2 0 0 9.26261165918E-1 -2.48190931388E-1 0 3.633633327112E-3 0 0
TRCX 0 2 0 0 9.444943119347E-1 -2.530764881387E-1 0 2.734583980952E-3 0 0
TRCX 0 2 0 0 9.571861768512E-1 -2.564772630935E-1 0 1.771571577585E-3 0 0
TRCX 0 2 0 0 9.642650827299E-1 -2.58374050207E-1 0 7.685560476199E-4 0 0
TRCX 0 2 0 0 4.14469565074E-2 -4.14469565074E-2 0 7.685560476199E-4 0 0
TRCX 0 2 0 0 9.4905311656E-2 -9.4905311656E-2 0 1.771571577585E-3 0 0
TRCX 0 2 0 0 1.481262736221E-1 -1.481262736221E-1 0 2.734583980952E-3 0 0
TRCX 0 2 0 0 2.005511332415E-1 -2.005511332415E-1 0 3.633633327112E-3 0 0
TRCX 0 2 0 0 2.518273682207E-1 -2.518273682207E-1 0 4.447540494408E-3 0 0
TRCX 0 2 0 0 3.016398180254E-1 -3.016398180254E-1 0 5.157209351455E-3 0 0
TRCX 0 2 0 0 3.496902193546E-1 -3.496902193546E-1 0 5.746000821016E-3 0 0
TRCX 0 2 0 0 3.956936666427E-1 -3.956936666427E-1 0 6.200112404699E-3 0 0
TRCX 0 2 0 0 4.393785807417E-1 -4.393785807417E-1 0 6.50889942245E-3 0 0
TRCX 0 2 0 0 4.804876374233E-1 -4.804876374233E-1 0 6.665123872512E-3 0 0
TRCX 0 2 0 0 5.187789801865E-1 -5.187789801865E-1 0 6.665123872512E-3 0 0
TRCX 0 2 0 0 5.540274928065E-1 -5.540274928065E-1 0 6.50889942245E-3 0 0
TRCX 0 2 0 0 5.860260422361E-1 -5.860260422361E-1 0 6.200112404699E-3 0 0
TRCX 0 2 0 0 6.145866501053E-1 -6.145866501053E-1 0 5.746000821016E-3 0 0
TRCX 0 2 0 0 6.395415703311E-1 -6.395415703311E-1 0 5.157209351455E-3 0 0
TRCX 0 2 0 0 6.607442596157E-1 -6.607442596157E-1 0 4.447540494408E-3 0 0
TRCX 0 2 0 0 6.7807023453E-1 -6.7807023453E-1 0 3.633633327112E-3 0 0
TRCX 0 2 0 0 6.91417823796E-1 -6.91417823796E-1 0 2.734583980952E-3 0 0
TRCX 0 2 0 0 7.007089137577E-1 -7.007089137577E-1 0 1.771571577585E-3 0 0
TRCX 0 2 0 0 7.058910325229E-1 -7.058910325229E-1 0 7.685560476199E-4 0 0
TRCX 0 2 0 0 1.517063899126E-2 -5.661759549866E-2 0 7.685560476199E-4 0 0
TRCX 0 2 0 0 3.473775502017E-2 -1.296430666762E-1 0 1.771571577585E-3 0 0
TRCX 0 2 0 0 5.421797911361E-2 -2.023442527357E-1 0 2.734583980952E-3 0 0
TRCX 0 2 0 0 7.340680952414E-2 -2.739579427656E-1 0 3.633633327112E-3 0 0
TRCX 0 2 0 0 9.217521413695E-2 -3.440025823576E-1 0 4.447540494408E-3 0 0
TRCX 0 2 0 0 1.104078361902E-1 -4.120476542156E-1 0 5.157209351455E-3 0 0
TRCX 0 2 0 0 1.279955037387E-1 -4.776857230934E-1 0 5.746000821016E-3 0 0
TRCX 0 2 0 0 1.448339341078E-1 -5.405276007505E-1 0 6.200112404699E-3 0 0